
  Mrv2111 06282101223D          

 18 18  0  0  0  0            999 V2000
    0.9995    0.1610   -1.7868 C   0  0  1  0  0  0  0  0  0  0  0  0
    1.2125    1.6059   -1.2636 C   0  0  2  0  0  0  0  0  0  0  0  0
    2.6798    2.0758   -1.4447 C   0  0  1  0  0  0  0  0  0  0  0  0
    3.6880    1.0786   -0.8156 C   0  0  2  0  0  0  0  0  0  0  0  0
    3.4750   -0.3662   -1.3387 C   0  0  2  0  0  0  0  0  0  0  0  0
    2.0077   -0.8361   -1.1577 C   0  0  2  0  0  0  0  0  0  0  0  0
   -0.0201   -0.1610   -1.5587 H   0  0  0  0  0  0  0  0  0  0  0  0
    1.1174    0.1523   -2.8743 H   0  0  0  0  0  0  0  0  0  0  0  0
    0.9517    1.6451   -0.2020 H   0  0  0  0  0  0  0  0  0  0  0  0
    0.5446    2.2874   -1.7971 H   0  0  0  0  0  0  0  0  0  0  0  0
    2.8948    2.1775   -2.5124 H   0  0  0  0  0  0  0  0  0  0  0  0
    2.8058    3.0589   -0.9835 H   0  0  0  0  0  0  0  0  0  0  0  0
    3.5701    1.0874    0.2719 H   0  0  0  0  0  0  0  0  0  0  0  0
    4.7076    1.4007   -1.0436 H   0  0  0  0  0  0  0  0  0  0  0  0
    4.1429   -1.0477   -0.8053 H   0  0  0  0  0  0  0  0  0  0  0  0
    3.7358   -0.4054   -2.4003 H   0  0  0  0  0  0  0  0  0  0  0  0
    1.8818   -1.8193   -1.6189 H   0  0  0  0  0  0  0  0  0  0  0  0
    1.7928   -0.9379   -0.0900 H   0  0  0  0  0  0  0  0  0  0  0  0
  1  2  1  0  0  0  0
  1  6  1  0  0  0  0
  2  3  1  0  0  0  0
  3  4  1  0  0  0  0
  4  5  1  0  0  0  0
  5  6  1  0  0  0  0
  1  7  1  0  0  0  0
  1  8  1  0  0  0  0
  2  9  1  0  0  0  0
  2 10  1  0  0  0  0
  3 11  1  0  0  0  0
  3 12  1  0  0  0  0
  4 13  1  0  0  0  0
  4 14  1  0  0  0  0
  5 15  1  0  0  0  0
  5 16  1  0  0  0  0
  6 17  1  0  0  0  0
  6 18  1  0  0  0  0
M  END
$$$$
