
  Mrv2111 06282101233D          

 20 19  0  0  0  0            999 V2000
    0.9376    0.5341   -1.8196 C   0  0  1  0  0  0  0  0  0  0  0  0
    1.2825    1.3955   -0.5763 C   0  0  0  0  0  0  0  0  0  0  0  0
    2.7553    1.8821   -0.6007 C   0  0  0  0  0  0  0  0  0  0  0  0
    3.7499    0.7055   -0.7828 C   0  0  2  0  0  0  0  0  0  0  0  0
    3.4051   -0.1558   -2.0260 C   0  0  2  0  0  0  0  0  0  0  0  0
    1.9322   -0.6424   -2.0017 C   0  0  2  0  0  0  0  0  0  0  0  0
   -0.0769    0.1395   -1.7177 H   0  0  0  0  0  0  0  0  0  0  0  0
    0.9624    1.1662   -2.7120 H   0  0  0  0  0  0  0  0  0  0  0  0
    1.1153    0.8032    0.3281 H   0  0  0  0  0  0  0  0  0  0  0  0
    0.6150    2.2604   -0.5373 H   0  0  0  0  0  0  0  0  0  0  0  0
    2.8851    2.5919   -1.4227 H   0  0  0  0  0  0  0  0  0  0  0  0
    2.9800    2.4063    0.3319 H   0  0  0  0  0  0  0  0  0  0  0  0
    3.7251    0.0735    0.1096 H   0  0  0  0  0  0  0  0  0  0  0  0
    4.7644    1.1001   -0.8845 H   0  0  0  0  0  0  0  0  0  0  0  0
    4.0725   -1.0207   -2.0650 H   0  0  0  0  0  0  0  0  0  0  0  0
    3.5722    0.4364   -2.9303 H   0  0  0  0  0  0  0  0  0  0  0  0
    1.7076   -1.1667   -2.9343 H   0  0  0  0  0  0  0  0  0  0  0  0
    1.8025   -1.3523   -1.1797 H   0  0  0  0  0  0  0  0  0  0  0  0
    1.9363    1.5148   -0.0935 H   0  0  0  0  0  0  0  0  0  0  0  0
    1.8721    2.3316   -0.2560 H   0  0  0  0  0  0  0  0  0  0  0  0
  1  2  1  0  0  0  0
  1  6  1  0  0  0  0
  3  4  1  0  0  0  0
  4  5  1  0  0  0  0
  5  6  1  0  0  0  0
  1  7  1  0  0  0  0
  1  8  1  0  0  0  0
  2  9  1  0  0  0  0
  2 10  1  0  0  0  0
  3 11  1  0  0  0  0
  3 12  1  0  0  0  0
  4 13  1  0  0  0  0
  4 14  1  0  0  0  0
  5 15  1  0  0  0  0
  5 16  1  0  0  0  0
  6 17  1  0  0  0  0
  6 18  1  0  0  0  0
  2 19  1  0  0  0  0
  3 20  1  0  0  0  0
M  END
$$$$
